German489.m
function mpc = German489
%GERMAN489 Power flow data for 489 bus German system.

%% MATPOWER Case Format : Version 2
mpc.version = '2';

%%-----  Power Flow Data  -----%%
%% system MVA base
mpc.baseMVA = 100;

%% bus data
%	bus_i	type	Pd	Qd	Gs	Bs	area	Vm	Va	baseKV	zone	Vmax	Vmin
mpc.bus = [
1	2	362.294985380372	181.147492690186	0	0	1	1.06870776367543	6.59471515228867	380	1	1.1	0.9
2	1	46.8330428632342	23.4165214316171	0	0	1	1.07725821345766	6.24846425210702	380	1	1.1	0.9
3	2	63.5005660364999	31.75028301825	0	0	1	1.05767154414689	4.83292417945733	380	1	1.1	0.9
4	1	104.428787066889	52.2143935334447	0	0	1	1.07732734963189	6.24332059109959	380	1	1.1	0.9
5	1	64.3960350551135	32.1980175275568	0	0	1	1.04520150261789	6.55677454840286	380	1	1.1	0.9
6	1	306.646206277976	153.323103138988	0	0	1	1.02937340483375	5.10139618088066	380	1	1.1	0.9
7	1	231.096048960054	115.548024480027	0	0	1	1.04611501798323	5.47660814964533	380	1	1.1	0.9
8	1	193.364662529367	96.6823312646836	0	0	1	1.0635033899339	7.87132589460979	380	1	1.1	0.9
9	1	130.76949927812	65.3847496390602	0	0	1	1.05926600678846	7.40553786288393	380	1	1.1	0.9
10	1	100.419848081918	50.2099240409589	0	0	1	1.09687406106482	13.041084149805	380	1	1.1	0.9
11	1	114.576373168544	57.2881865842719	0	0	1	1.08577818348887	11.5098383087672	380	1	1.1	0.9
12	1	129.429163902108	64.7145819510542	0	0	1	1.09003744080285	10.4470739660866	380	1	1.1	0.9
13	1	176.894159702064	88.4470798510319	0	0	1	0.961051589111479	-32.2034043149884	380	1	1.1	0.9
14	2	274.02465310812	137.01232655406	0	0	1	0.994735420021237	-29.6424290690929	380	1	1.1	0.9
15	1	139.247319457252	69.6236597286259	0	0	1	0.99533463893022	-29.483297779555	380	1	1.1	0.9
16	2	467.339048256523	233.669524128262	0	0	1	1.04472415396184	8.72483526296676	380	1	1.1	0.9
17	1	110.070622534462	55.0353112672312	0	0	1	1.09031039025251	10.3972428017495	380	1	1.1	0.9
18	1	9.86311980863248	4.93155990431624	0	0	1	1.09488965797828	12.4467322669877	380	1	1.1	0.9
19	2	271.943015481525	135.971507740763	0	0	1	0.99220398330862	-31.8163052309182	380	1	1.1	0.9
20	1	1233.38007446668	616.690037233338	0	0	1	1.0612613613033	8.36560285206163	380	1	1.1	0.9
21	2	1169.39668028711	584.698340143556	0	0	1	1.06816001810306	8.14567069475152	380	1	1.1	0.9
22	1	57.8444134776118	28.9222067388059	0	0	1	1.08677275813572	10.7660907738822	380	1	1.1	0.9
23	1	153.113674797986	76.5568373989929	0	0	1	1.06275943889764	8.68262877394709	380	1	1.1	0.9
24	1	80.7413241123107	40.3706620561554	0	0	1	1.08779894229957	10.7605648301172	380	1	1.1	0.9
25	1	73.2353377880312	36.6176688940156	0	0	1	1.09451706838657	11.7327444127733	380	1	1.1	0.9
26	1	44.2049251792961	22.1024625896481	0	0	1	1.1	12.4648303743047	380	1	1.1	0.9
27	1	89.8984047973379	44.949202398669	0	0	1	1.08194399356653	9.64758518241246	380	1	1.1	0.9
28	2	265.622853520419	132.81142676021	0	0	1	1.08892367953709	10.3842984187345	380	1	1.1	0.9
29	1	97.5688041126766	48.7844020563383	0	0	1	1.05632030203496	7.12485042031376	380	1	1.1	0.9
30	1	74.7871116097696	37.3935558048848	0	0	1	1.08082900823757	9.61998161313053	380	1	1.1	0.9
31	2	192.012887440733	96.0064437203664	0	0	1	1.03497284080168	-6.15282774122827	380	1	1.1	0.9
32	1	295.169240929908	147.584620464954	0	0	1	1.06704909094654	1.25833267447246	380	1	1.1	0.9
33	2	240.748077550913	120.374038775456	0	0	1	1.04105516794239	-3.59063842622553	380	1	1.1	0.9
34	2	47.7632889438395	23.8816444719198	0	0	1	1.1	18.0596484363171	380	1	1.1	0.9
35	1	3.16218219151803	1.58109109575902	0	0	1	1.09999684536436	18.058731637038	380	1	1.1	0.9
36	2	10.46953034175	5.23476517087498	0	0	1	1.09999998666221	18.0596484364484	380	1	1.1	0.9
37	1	90.3988241029018	45.1994120514509	0	0	1	1.09909609998065	15.6588878652718	380	1	1.1	0.9
38	1	252.23436553786	126.11718276893	0	0	1	1.09417218628997	13.3390954220927	380	1	1.1	0.9
39	2	82.5937596988516	41.2968798494258	0	0	1	1.1	18.54473610635	380	1	1.1	0.9
40	2	86.2717647244498	43.1358823622249	0	0	1	1.09535190724414	13.6256507589115	380	1	1.1	0.9
41	1	92.7225943499774	46.3612971749887	0	0	1	1.09137543231932	15.5532334424436	380	1	1.1	0.9
42	1	59.1973963463953	29.5986981731977	0	0	1	1.08050828666971	11.5434928243054	380	1	1.1	0.9
43	2	142.194276798511	71.0971383992558	0	0	1	1.1	13.6497290576051	380	1	1.1	0.9
44	2	181.916494406814	90.9582472034069	0	0	1	1.08556364976635	10.1005236911636	380	1	1.1	0.9
45	2	96.5653434104682	48.2826717052341	0	0	1	1.1	12.0659362154865	380	1	1.1	0.9
46	1	419.873864996355	209.936932498178	0	0	1	1.0890617950757	10.18508044323	380	1	1.1	0.9
47	2	419.873864996356	209.936932498178	0	0	1	1.09135333089856	10.230983773774	380	1	1.1	0.9
48	1	288.607368569269	144.303684284635	0	0	1	1.0827571684324	9.52032525729489	380	1	1.1	0.9
49	2	73.0031035301111	36.5015517650556	0	0	1	1.05301374905979	10.9640229475397	380	1	1.1	0.9
50	1	106.302372764831	53.1511863824156	0	0	1	1.05186816632453	10.8638825652098	380	1	1.1	0.9
51	2	137.760935903141	68.8804679515704	0	0	1	1.03619340817989	-4.44355286548226	380	1	1.1	0.9
52	1	131.793239251138	65.8966196255692	0	0	1	1.1	-17.3206331142976	380	1	1.1	0.9
53	1	209.030156461354	104.515078230677	0	0	1	1.07092947053305	-21.453315510931	380	1	1.1	0.9
54	1	106.199489616844	53.099744808422	0	0	1	1.09992773664101	-16.8680052831775	380	1	1.1	0.9
55	1	104.150664114579	52.0753320572893	0	0	1	1.09183008405244	-17.8819332909392	380	1	1.1	0.9
56	1	125.363261295995	62.6816306479974	0	0	1	1.08205219151679	-18.310839813424	380	1	1.1	0.9
57	1	124.323358073682	62.161679036841	0	0	1	1.08846028463848	-18.0748985975107	380	1	1.1	0.9
58	2	284.78156137797	142.390780688985	0	0	1	1.08358535713231	-18.5099273880235	380	1	1.1	0.9
59	2	81.3353545013747	40.6676772506874	0	0	1	1.1	18.3823303834552	380	1	1.1	0.9
60	1	42.8822556174931	21.4411278087466	0	0	1	1.09140062290245	16.023092404684	380	1	1.1	0.9
61	1	182.250744686568	91.1253723432842	0	0	1	1.09643685168951	15.3511168713977	380	1	1.1	0.9
62	2	326.924853134168	163.462426567084	0	0	1	1.07041489580735	10.1105015462705	380	1	1.1	0.9
63	2	192.980941649357	96.4904708246785	0	0	1	1.1	-17.4202153292826	380	1	1.1	0.9
64	2	1973.78757419207	986.893787096038	0	0	1	0.942281939042324	-33.9533453726748	380	1	1.1	0.9
65	2	6.82370001234464	3.41185000617232	0	0	1	1.05060918370175	1.69971045620529	380	1	1.1	0.9
66	2	216.508221369427	108.254110684714	0	0	1	0.980163259596581	-15.1435333868744	380	1	1.1	0.9
67	2	464.446606367331	232.223303183666	0	0	1	1.1	18.4190595537732	380	1	1.1	0.9
68	1	240.170332519609	120.085166259805	0	0	1	1.01141061875762	-17.8953482934076	380	1	1.1	0.9
69	1	151.729946975445	75.8649734877225	0	0	1	1.01798995683475	-15.5030080504008	380	1	1.1	0.9
70	2	878.627045161628	439.313522580814	0	0	1	0.980915547393478	-20.4397048211368	380	1	1.1	0.9
71	2	204.181608086157	102.090804043078	0	0	1	1.1	9.43407166891126	380	1	1.1	0.9
72	2	334.421455568004	167.210727784002	0	0	1	1.1	8.3118126959748	380	1	1.1	0.9
73	1	107.060909585899	53.5304547929497	0	0	1	1.0968990785582	11.7730363347171	380	1	1.1	0.9
74	1	132.354870021453	66.1774350107265	0	0	1	1.09933844502202	14.1090101539449	380	1	1.1	0.9
75	2	133.435574533793	66.7177872668965	0	0	1	1.09898065659202	9.52725726138157	380	1	1.1	0.9
76	1	128.794605645685	64.3973028228425	0	0	1	1.07323530008167	2.04968755839324	380	1	1.1	0.9
77	2	124.746377317007	62.3731886585033	0	0	1	1.05511140110714	-0.374135114412481	380	1	1.1	0.9
78	1	87.42856325451	43.714281627255	0	0	1	1.05049771194716	-3.01830448582801	380	1	1.1	0.9
79	2	128.810248741306	64.4051243706532	0	0	1	1.09620783949964	18.0632935642033	380	1	1.1	0.9
80	1	136.816359212785	68.4081796063924	0	0	1	1.09847477705599	16.2918583178114	380	1	1.1	0.9
81	2	154.447036769754	77.2235183848768	0	0	1	1.1	19.7121043319956	380	1	1.1	0.9
82	1	5.14008813100396	2.57004406550198	0	0	1	1.09994918737597	18.0563023052875	380	1	1.1	0.9
83	2	343.90979603619	171.954898018095	0	0	1	1.1	14.0826587935084	380	1	1.1	0.9
84	2	33.8557975683868	16.9278987841934	0	0	1	1.09999996654724	14.0826587935474	380	1	1.1	0.9
85	1	117.405332854375	58.7026664271875	0	0	1	1.07437347283563	9.76876307548138	380	1	1.1	0.9
86	1	48.1638086981679	24.0819043490839	0	0	1	1.0866130990918	11.881918143554	380	1	1.1	0.9
87	1	119.87505855383	59.9375292769151	0	0	1	1.05800160364585	7.37908812791512	380	1	1.1	0.9
88	2	94.7616636649107	47.3808318324554	0	0	1	1.04832138173135	2.30237885001877	380	1	1.1	0.9
89	2	117.566348699743	58.7831743498713	0	0	1	1.05108437719184	3.26482323965043	380	1	1.1	0.9
90	1	135.783941458454	67.891970729227	0	0	1	1.0884975079139	9.9396371509254	380	1	1.1	0.9
91	1	47.1645804429057	23.5822902214529	0	0	1	1.08661187635994	11.8808276708763	380	1	1.1	0.9
92	2	51.4731033780834	25.7365516890417	0	0	1	1.08661875822375	11.8811178539774	380	1	1.1	0.9
93	1	50.4848023962561	25.2424011981281	0	0	1	1.08562707390868	11.6851894103269	380	1	1.1	0.9
94	1	106.935673956262	53.4678369781308	0	0	1	1.07621383311144	8.98965883303651	380	1	1.1	0.9
95	1	119.6358562342	59.8179281171003	0	0	1	1.07850494173647	9.71102559974629	380	1	1.1	0.9
96	1	56.1958256416494	28.0979128208247	0	0	1	1.0869412254215	11.986755932011	380	1	1.1	0.9
97	1	7.10031036095798	3.55015518047899	0	0	1	0.984933571876243	-15.3337274825837	380	1	1.1	0.9
98	1	130.546149030195	65.2730745150976	0	0	1	1.08067184009266	12.234509548133	380	1	1.1	0.9
99	1	316.498448222177	158.249224111089	0	0	1	1.09877731042241	-1.7983746708922	380	1	1.1	0.9
100	1	31.1492417148252	15.5746208574126	0	0	1	1.09096239197188	-0.825591236294351	380	1	1.1	0.9
101	1	92.4399863262402	46.2199931631201	0	0	1	1.07504715061863	10.1962382252334	380	1	1.1	0.9
102	2	178.921902101741	89.4609510508707	0	0	1	1.07021500949186	9.53169397645547	380	1	1.1	0.9
103	1	209.194325498833	104.597162749417	0	0	1	1.04493953779329	6.06134489806917	380	1	1.1	0.9
104	1	125.761546436249	62.8807732181243	0	0	1	1.04266146601462	5.82045298110349	380	1	1.1	0.9
105	1	113.605383201207	56.8026916006037	0	0	1	1.04182450929665	5.61642777468931	380	1	1.1	0.9
106	1	97.2698486875917	48.6349243437959	0	0	1	1.06393530197265	7.08684901009766	380	1	1.1	0.9
107	1	52.3592535408593	26.1796267704297	0	0	1	1.05520049781986	6.00546513568016	380	1	1.1	0.9
108	2	147.5610923149	73.7805461574498	0	0	1	1.05531068347759	5.94346975222593	380	1	1.1	0.9
109	1	59.7449680736666	29.8724840368333	0	0	1	1.07146063587309	7.79032198688655	380	1	1.1	0.9
110	1	77.5513636392676	38.7756818196338	0	0	1	1.09543634974581	8.62084665012282	380	1	1.1	0.9
111	2	136.666457452415	68.3332287262077	0	0	1	1.06164758179197	1.45028322719465	380	1	1.1	0.9
112	2	69.1704548561713	34.5852274280857	0	0	1	1.0757760863672	8.38479741724242	380	1	1.1	0.9
113	1	109.03769461103	54.5188473055152	0	0	1	1.05536519525591	6.38453903436949	380	1	1.1	0.9
114	2	160.585860852143	80.2929304260714	0	0	1	1.07235800099511	4.24179523912319	380	1	1.1	0.9
115	2	103.520263642689	51.7601318213445	0	0	1	1.06285315193507	0	380	1	1.1	0.9
116	2	173.226924622902	86.6134623114511	0	0	1	1.05643198478421	0.078466480086364	380	1	1.1	0.9
117	1	151.972273909721	75.9861369548606	0	0	1	1.05303625692448	-3.29239736342124	380	1	1.1	0.9
118	2	268.217106171384	134.108553085692	0	0	1	1.04383908154791	-5.64442320718126	380	1	1.1	0.9
119	2	51.9914894257651	25.9957447128826	0	0	1	1.07832780079587	-0.975209676890524	380	1	1.1	0.9
120	1	181.050452996106	90.5252264980528	0	0	1	1.03542801438598	-4.87444166627845	380	1	1.1	0.9
121	2	70.6044658467628	35.3022329233814	0	0	1	1.07729993050448	-1.10686412727093	380	1	1.1	0.9
122	1	61.8134929019841	30.906746450992	0	0	1	1.07665664717867	-1.16873545232036	380	1	1.1	0.9
123	1	54.8910920366857	27.4455460183429	0	0	1	1.06531328591115	-0.887098255942188	380	1	1.1	0.9
124	1	60.2665617769524	30.1332808884762	0	0	1	1.05673296318203	-0.194120527530848	380	1	1.1	0.9
125	1	131.537406609358	65.7687033046788	0	0	1	1.04482996784559	-2.25097334468212	380	1	1.1	0.9
126	2	324.089678990242	162.044839495121	0	0	1	1.03837184974866	-3.45744045455068	380	1	1.1	0.9
127	2	250.555416691927	125.277708345963	0	0	1	1.09967493317435	1.13680981088441	380	1	1.1	0.9
128	1	168.611477250101	84.3057386250507	0	0	1	1.03715342813743	-7.97209663116619	380	1	1.1	0.9
129	1	71.4506571262656	35.7253285631328	0	0	1	1.04608187610307	0.934224802544981	380	1	1.1	0.9
130	2	345.470341001941	172.735170500971	0	0	1	1.04144859828089	-2.97905166244154	380	1	1.1	0.9
131	2	76.2795523430935	38.1397761715468	0	0	1	1.05642895178169	-0.141673490243477	380	1	1.1	0.9
132	2	198.620421525332	99.3102107626661	0	0	1	1.05223103440397	1.77795889336263	380	1	1.1	0.9
133	2	66.5300602400331	33.2650301200165	0	0	1	1.05968947448397	-2.36704359657405	380	1	1.1	0.9
134	2	66.2576162461569	33.1288081230785	0	0	1	1.05371841630728	-2.80184908047378	380	1	1.1	0.9
135	1	66.3454670924202	33.1727335462101	0	0	1	1.0859061146127	8.43772121467811	380	1	1.1	0.9
136	2	64.2708115321405	32.1354057660702	0	0	1	1.1	9.07105775684949	380	1	1.1	0.9
137	2	51.4107331861161	25.7053665930581	0	0	1	1.03932555473467	5.3394492333729	380	1	1.1	0.9
138	1	72.6464403622918	36.3232201811459	0	0	1	1.05704133438223	7.25655281099565	380	1	1.1	0.9
139	2	100.708416549957	50.3542082749784	0	0	1	1.05565375909048	7.59362619153754	380	1	1.1	0.9
140	2	69.6441818261043	34.8220909130522	0	0	1	1.06853264533946	7.82042797171453	380	1	1.1	0.9
141	2	82.516063087324	41.258031543662	0	0	1	1.06943475602127	7.66724385946527	380	1	1.1	0.9
142	2	90.7971259995506	45.3985629997753	0	0	1	1.06018902228923	6.91801783079246	380	1	1.1	0.9
143	1	69.7279188382693	34.8639594191347	0	0	1	1.07563641413018	8.37056317837227	380	1	1.1	0.9
144	1	82.7067939986509	41.3533969993254	0	0	1	1.05736357414843	6.64349803068775	380	1	1.1	0.9
145	2	240.596252167342	120.298126083671	0	0	1	1.03055866205832	-2.60950799914585	380	1	1.1	0.9
146	2	310.173828721754	155.086914360877	0	0	1	0.988226205172574	-5.90342563808849	380	1	1.1	0.9
147	2	190.118292382817	95.0591461914085	0	0	1	1.06653405388656	8.85094819338485	380	1	1.1	0.9
148	2	268.291812758985	134.145906379492	0	0	1	1.00962274182576	-3.56446633835094	380	1	1.1	0.9
149	2	172.965790110031	86.4828950550156	0	0	1	1.03011116557075	-4.69170962519479	380	1	1.1	0.9
150	2	225.824798091937	112.912399045968	0	0	1	1.01730293092336	-5.02836590636129	380	1	1.1	0.9
151	1	53.2152685968698	26.6076342984349	0	0	1	1.05762252142901	0.118390200739797	380	1	1.1	0.9
152	1	110.469379295458	55.2346896477289	0	0	1	1.04163008257986	-4.03349920165916	380	1	1.1	0.9
153	2	197.095339274218	98.5476696371091	0	0	1	1.02054785662733	-0.324747372286545	380	1	1.1	0.9
154	1	141.918709479346	70.9593547396731	0	0	1	1.02819091263444	-3.75701160328389	380	1	1.1	0.9
155	2	126.730252261818	63.3651261309089	0	6.85967519156622	1	0.9	-12.4125170955968	380	1	1.1	0.9
156	1	62.4846292189706	31.2423146094853	0	0	1	1.05964461722567	-2.37707841266448	380	1	1.1	0.9
157	1	172.367576339263	86.1837881696317	0	0	1	1.1	6.06241396703274	380	1	1.1	0.9
158	1	55.5587618859507	27.7793809429754	0	0	1	1.07826160879091	-0.981743803408907	380	1	1.1	0.9
159	1	215.793142933206	107.896571466603	0	0	1	1.0882425207151	15.4699806654348	380	1	1.1	0.9
160	1	170.091500656278	85.0457503281389	0	0	1	1.09139958004501	16.0196681594777	380	1	1.1	0.9
161	2	172.478140208314	86.2390701041572	0	0	1	1.08824215025431	15.4746678103256	380	1	1.1	0.9
162	1	255.982067806971	127.991033903486	0	0	1	1.05082009950179	-2.98644783396536	380	1	1.1	0.9
163	1	51.5583061067895	25.7791530533947	0	0	1	1.07016685852811	-0.956645884552568	380	1	1.1	0.9
164	1	51.7656529540667	25.8828264770334	0	0	1	1.07558347626335	8.36334011172352	380	1	1.1	0.9
165	1	56.5824328878871	28.2912164439436	0	0	1	1.09182087179379	9.75525238022473	380	1	1.1	0.9
166	2	60.5224232124066	30.2612116062033	0	0	1	1.1	11.7359493502176	380	1	1.1	0.9
167	2	85.1398148597936	42.5699074298968	0	0	1	1.08912988421387	9.40631724896148	380	1	1.1	0.9
168	1	58.1068369669954	29.0534184834977	0	0	1	1.04216065335888	5.71078212337371	380	1	1.1	0.9
169	2	198.916457027707	99.4582285138537	0	0	1	1.04142826179233	5.73235069559538	380	1	1.1	0.9
170	2	149.468943629139	74.7344718145697	0	0	1	1.041831509612	5.68944938009807	380	1	1.1	0.9
171	1	127.571687225567	63.7858436127837	0	0	1	1.04620052706215	2.94233251484011	380	1	1.1	0.9
172	1	62.6087085346285	31.3043542673142	0	0	1	1.04023798079594	5.39800274453579	380	1	1.1	0.9
173	1	59.8098476254503	29.9049238127252	0	0	1	1.04610270917213	0.933269745633927	380	1	1.1	0.9
174	2	89.7531507699782	44.8765753849891	0	0	1	1.04073357188595	5.42783143661578	380	1	1.1	0.9
175	2	59.7706479164343	29.8853239582172	0	0	1	1.0518706715971	2.81323092529413	380	1	1.1	0.9
176	2	208.278515428099	104.13925771405	0	0	1	1.03099462165566	0.539402597858759	380	1	1.1	0.9
177	2	33.9628465422573	16.9814232711287	0	0	1	1.08497515777141	11.8167266012861	380	1	1.1	0.9
178	2	179.875566616402	89.9377833082009	0	0	1	1.00185237606097	-7.26144225301629	380	1	1.1	0.9
179	1	66.2779379036871	33.1389689518436	0	0	1	1.07781978052122	11.0186166725112	380	1	1.1	0.9
180	2	58.2600036660831	29.1300018330415	0	0	1	1.09968044429281	15.2972534231015	380	1	1.1	0.9
181	1	43.9729727598156	21.9864863799078	0	0	1	1.08063860233887	11.8030226361821	380	1	1.1	0.9
182	1	1.99199616003634	0.995998080018171	0	0	1	1.1	15.2843991784862	380	1	1.1	0.9
183	2	596.267123726907	298.133561863453	0	0	1	1.07757225845364	8.85744295490111	380	1	1.1	0.9
184	1	42.2971665671621	21.1485832835811	0	0	1	1.03929160318892	4.39250488779363	380	1	1.1	0.9
185	2	127.508276082251	63.7541380411256	0	0	1	1.04572211296097	3.33275200453526	380	1	1.1	0.9
186	1	68.6625443205773	34.3312721602887	0	0	1	1.03903035317728	5.10546776706992	380	1	1.1	0.9
187	1	40.160596312896	20.080298156448	0	0	1	1.03874147572915	5.50285878158802	380	1	1.1	0.9
188	2	59.770647916458	29.885323958229	0	0	1	1.05268505818738	3.60917506914567	380	1	1.1	0.9
189	1	219.320814263883	109.660407131942	0	0	1	1.02481074545836	-26.1601184985433	380	1	1.1	0.9
190	2	290.092810802098	145.046405401049	0	0	1	1.02485046830085	-25.999653311059	380	1	1.1	0.9
191	1	44.8798941846885	22.4399470923443	0	0	1	1.03900989915486	5.11524219234218	380	1	1.1	0.9
192	1	69.8631362658666	34.9315681329333	0	0	1	1.08035954707349	11.5342513343565	380	1	1.1	0.9
193	1	59.6742330885943	29.8371165442972	0	0	1	1.03623629224667	4.88524394829641	380	1	1.1	0.9
194	2	41.1940786835948	20.5970393417974	0	0	1	1.03869907778866	5.51532096353115	380	1	1.1	0.9
195	1	40.4123735765634	20.2061867882817	0	0	1	1.03871124208497	5.51001693860795	380	1	1.1	0.9
196	2	57.792891284464	28.896445642232	0	0	1	1.04095649707487	5.5908907146156	380	1	1.1	0.9
197	2	91.5651646000705	45.7825823000353	0	0	1	1.03806650778299	5.29498432753613	380	1	1.1	0.9
198	2	54.1833613095026	27.0916806547513	0	0	1	1.09576554934122	8.65199298838477	380	1	1.1	0.9
199	1	69.7592743394342	34.8796371697171	0	0	1	1.08264713899973	9.27818484969056	380	1	1.1	0.9
200	2	59.7720348133956	29.8860174066978	0	0	1	1.03616740094858	4.87304978349504	380	1	1.1	0.9
...
];

%% generator data
%	bus	Pg	Qg	Qmax	Qmin	Vg	mBase	status	Pmax	Pmin	Pc1	Pc2	Qc1min	Qc1max	Qc2min	Qc2max	ramp_agc	ramp_10	ramp_30	ramp_q	apf
mpc.gen = [
	1	121	27.9720166380709	96.8	-48.4	1.06870776367543	100	1	121	0	0	0	0	0	0	0	0	0	0	0
1	272	73.2572035214788	217.6	-108.8	1.06870776367543	100	1	272	0	0	0	0	0	0	0	0	0	0	0
102	67.9	11.6856345545393	54.32	-27.16	1.07021500949186	100	1	67.9	0	0	0	0	0	0	0	0	0	0	0
108	63.1	49.0013394612674	50.48	-25.24	1.05531068347759	100	1	63.1	0	0	0	0	0	0	0	0	0	0	0
108	38	28.9411528413344	30.4	-15.2	1.05531068347759	100	1	38	0	0	0	0	0	0	0	0	0	0	0
111	13.5	10.8	10.8	-5.4	1.06164758179197	100	1	13.5	0	0	0	0	0	0	0	0	0	0	0
112	13.5	-5.4	10.8	-5.4	1.0757760863672	100	1	13.5	0	0	0	0	0	0	0	0	0	0	0
112	11.1	-4.44	8.88	-4.44	1.0757760863672	100	1	11.1	0	0	0	0	0	0	0	0	0	0	0
114	19	15.2	15.2	-7.6	1.07235800099511	100	1	19	0	0	0	0	0	0	0	0	0	0	0
115	502.755693799739	122.896073218808	3784	-1892	1.06285315193507	100	1	4730	0	0	0	0	0	0	0	0	0	0	0
116	543.3	-121.375941234842	434.64	-217.32	1.05643198478421	100	1	543.3	0	0	0	0	0	0	0	0	0	0	0
118	95	76	76	-38	1.04383908154791	100	1	95	0	0	0	0	0	0	0	0	0	0	0
118	12	9.6	9.6	-4.8	1.04383908154791	100	1	12	0	0	0	0	0	0	0	0	0	0	0
119	9.3	7.44	7.44	-3.72	1.07832780079587	100	1	9.3	0	0	0	0	0	0	0	0	0	0	0
119	16.9	13.52	13.52	-6.76	1.07832780079587	100	1	16.9	0	0	0	0	0	0	0	0	0	0	0
119	61.5	49.2	49.2	-24.6	1.07832780079587	100	1	61.5	0	0	0	0	0	0	0	0	0	0	0
121	24.6	19.68	19.68	-9.84	1.07729993050448	100	1	24.6	0	0	0	0	0	0	0	0	0	0	0
123	1558.85039395795	2764	2764	-1382	1.06531328591115	100	1	3455	0	0	0	0	0	0	0	0	0	0	0
123	48.1171689239873	77.2	77.2	-38.6	1.06531328591115	100	1	96.5	0	0	0	0	0	0	0	0	0	0	0
126	2	1.6	1.6	-0.8	1.03837184974866	100	1	2	0	0	0	0	0	0	0	0	0	0	0
126	60	48	48	-24	1.03837184974866	100	1	60	0	0	0	0	0	0	0	0	0	0	0
127	1800	793.218806136403	1440	-720	1.09967493317435	100	1	1800	0	0	0	0	0	0	0	0	0	0	0
127	24	4.89178158923491	19.2	-9.6	1.09967493317435	100	1	24	0	0	0	0	0	0	0	0	0	0	0
128	36.4	29.12	29.12	-14.56	1.03715342813743	100	1	36.4	0	0	0	0	0	0	0	0	0	0	0
129	61.5	49.2	49.2	-24.6	1.04608187610307	100	1	61.5	0	0	0	0	0	0	0	0	0	0	0
12	150	120	120	-60	1.09003744080285	100	1	150	0	0	0	0	0	0	0	0	0	0	0
12	30	24	24	-12	1.09003744080285	100	1	30	0	0	0	0	0	0	0	0	0	0	0
130	85	68	68	-34	1.04144859828089	100	1	85	0	0	0	0	0	0	0	0	0	0	0
130	30	24	24	-12	1.04144859828089	100	1	30	0	0	0	0	0	0	0	0	0	0	0
131	586.3	-234.52	469.04	-234.52	1.05642895178169	100	1	586.3	0	0	0	0	0	0	0	0	0	0	0
132	29	-11.6	23.2	-11.6	1.05223103440397	100	1	29	0	0	0	0	0	0	0	0	0	0	0
133	137	109.6	109.6	-54.8	1.05968947448397	100	1	137	0	0	0	0	0	0	0	0	0	0	0
133	33.4	26.72	26.72	-13.36	1.05968947448397	100	1	33.4	0	0	0	0	0	0	0	0	0	0	0
134	118	94.4	94.4	-47.2	1.05371841630728	100	1	118	0	0	0	0	0	0	0	0	0	0	0
136	838	427.087564703959	670.4	-335.2	1.1	100	1	838	0	0	0	0	0	0	0	0	0	0	0
136	765	377.340826128978	612	-306	1.1	100	1	765	0	0	0	0	0	0	0	0	0	0	0
137	11.4	9.12	9.12	-4.56	1.03932555473467	100	1	11.4	0	0	0	0	0	0	0	0	0	0	0
139	760	55.1992005973302	608	-304	1.05565375909048	100	1	760	0	0	0	0	0	0	0	0	0	0	0
14	27	21.6	21.6	-10.8	0.994735420021237	100	1	27	0	0	0	0	0	0	0	0	0	0	0
140	11.1	8.88	8.88	-4.44	1.06853264533946	100	1	11.1	0	0	0	0	0	0	0	0	0	0	0
141	64.7	47.9024142011575	51.76	-25.88	1.06943475602127	100	1	64.7	0	0	0	0	0	0	0	0	0	0	0
142	9.8	1.95301935732945	7.84	-3.92	1.06018902228923	100	1	9.8	0	0	0	0	0	0	0	0	0	0	0
142	449	75.189766013096	359.2	-179.6	1.06018902228923	100	1	449	0	0	0	0	0	0	0	0	0	0	0
145	30.8282854495165	-1.12068960829606	60.24	-30.12	1.03055866205832	100	1	75.3	0	0	0	0	0	0	0	0	0	0	0
145	82.2833160429263	-164.276636994877	429.2	-214.6	1.03055866205832	100	1	536.5	0	0	0	0	0	0	0	0	0	0	0
145	32.2683254831644	-1.96463198619572	63.84	-31.92	1.03055866205832	100	1	79.8	0	0	0	0	0	0	0	0	0	0	0
145	20.0508849756269	2.7221864328434	36.08	-18.04	1.03055866205832	100	1	45.1	0	0	0	0	0	0	0	0	0	0	0
146	84	67.2	67.2	-33.6	0.988226205172574	100	1	84	0	0	0	0	0	0	0	0	0	0	0
147	230	73.4532688321948	184	-92	1.06653405388656	100	1	230	0	0	0	0	0	0	0	0	0	0	0
148	4.82885408386802	-4.08	8.16	-4.08	1.00962274182576	100	1	10.2	0	0	0	0	0	0	0	0	0	0	0
148	26.5452185525132	-34.48	68.96	-34.48	1.00962274182576	100	1	86.2	0	0	0	0	0	0	0	0	0	0	0
148	19.8286932833632	-21.48	42.96	-21.48	1.00962274182576	100	1	53.7	0	0	0	0	0	0	0	0	0	0	0
149	128.7	102.96	102.96	-51.48	1.03011116557075	100	1	128.7	0	0	0	0	0	0	0	0	0	0	0
150	15.8	12.64	12.64	-6.32	1.01730293092336	100	1	15.8	0	0	0	0	0	0	0	0	0	0	0
153	12	9.6	9.6	-4.8	1.02054785662733	100	1	12	0	0	0	0	0	0	0	0	0	0	0
155	12.6	10.08	10.08	-5.04	0.9	100	1	12.6	0	0	0	0	0	0	0	0	0	0	0
156	28.9	23.12	23.12	-11.56	1.05964461722567	100	1	28.9	0	0	0	0	0	0	0	0	0	0	0
157	857	589.486421785515	685.6	-342.8	1.1	100	1	857	0	0	0	0	0	0	0	0	0	0	0
157	22	5.20991931952417	17.6	-8.8	1.1	100	1	22	0	0	0	0	0	0	0	0	0	0	0
16	11.4	-4.56	9.12	-4.56	1.04472415396184	100	1	11.4	0	0	0	0	0	0	0	0	0	0	0
160	103	82.4	82.4	-41.2	1.09139958004501	100	1	103	0	0	0	0	0	0	0	0	0	0	0
160	14	11.2	11.2	-5.6	1.09139958004501	100	1	14	0	0	0	0	0	0	0	0	0	0	0
161	58.58	46.864	46.864	-23.432	1.08824215025431	100	1	58.58	0	0	0	0	0	0	0	0	0	0	0
166	333.6	60.8134033316533	266.88	-133.44	1.1	100	1	333.6	0	0	0	0	0	0	0	0	0	0	0
166	1324.5	172.957738441899	1059.6	-529.8	1.1	100	1	1324.5	0	0	0	0	0	0	0	0	0	0	0
167	26	20.8	20.8	-10.4	1.08912988421387	100	1	26	0	0	0	0	0	0	0	0	0	0	0
167	46.9	37.52	37.52	-18.76	1.08912988421387	100	1	46.9	0	0	0	0	0	0	0	0	0	0	0
169	33.7	26.96	26.96	-13.48	1.04142826179233	100	1	33.7	0	0	0	0	0	0	0	0	0	0	0
170	23.1	18.48	18.48	-9.24	1.041831509612	100	1	23.1	0	0	0	0	0	0	0	0	0	0	0
170	61.5	49.2	49.2	-24.6	1.041831509612	100	1	61.5	0	0	0	0	0	0	0	0	0	0	0
174	24.5	15.3917777540441	19.6	-9.8	1.04073357188595	100	1	24.5	0	0	0	0	0	0	0	0	0	0	0
174	38	25.9008645839152	30.4	-15.2	1.04073357188595	100	1	38	0	0	0	0	0	0	0	0	0	0	0
175	95	73.1371851080445	76	-38	1.0518706715971	100	1	95	0	0	0	0	0	0	0	0	0	0	0
175	21	14.1996069174154	16.8	-8.4	1.0518706715971	100	1	21	0	0	0	0	0	0	0	0	0	0	0
176	3.3	2.64	2.64	-1.32	1.03099462165566	100	1	3.3	0	0	0	0	0	0	0	0	0	0	0
177	32.7	-13.08	26.16	-13.08	1.08497515777141	100	1	32.7	0	0	0	0	0	0	0	0	0	0	0
178	9.2	7.36	7.36	-3.68	1.00185237606097	100	1	9.2	0	0	0	0	0	0	0	0	0	0	0
178	15	12	12	-6	1.00185237606097	100	1	15	0	0	0	0	0	0	0	0	0	0	0
180	25.4	4.54990543345737	20.32	-10.16	1.09968044429281	100	1	25.4	0	0	0	0	0	0	0	0	0	0	0
180	333.5	-11.0002327494257	266.8	-133.4	1.09968044429281	100	1	333.5	0	0	0	0	0	0	0	0	0	0	0
180	28.9	5.09399530942651	23.12	-11.56	1.09968044429281	100	1	28.9	0	0	0	0	0	0	0	0	0	0	0
183	22.5	18	18	-9	1.07757225845364	100	1	22.5	0	0	0	0	0	0	0	0	0	0	0
183	766	612.8	612.8	-306.4	1.07757225845364	100	1	766	0	0	0	0	0	0	0	0	0	0	0
183	38	30.4	30.4	-15.2	1.07757225845364	100	1	38	0	0	0	0	0	0	0	0	0	0	0
183	24	19.2	19.2	-9.6	1.07757225845364	100	1	24	0	0	0	0	0	0	0	0	0	0	0
184	0	-8.92	17.84	-8.92	1.03929160318892	100	1	22.3	0	0	0	0	0	0	0	0	0	0	0
185	33.1	26.48	26.48	-13.24	1.04572211296097	100	1	33.1	0	0	0	0	0	0	0	0	0	0	0
188	274	30.7173166773516	219.2	-109.6	1.05268505818738	100	1	274	0	0	0	0	0	0	0	0	0	0	0
18	52.8	-21.12	42.24	-21.12	1.09488965797828	100	1	52.8	0	0	0	0	0	0	0	0	0	0	0
19	10.6	8.48	8.48	-4.24	0.99220398330862	100	1	10.6	0	0	0	0	0	0	0	0	0	0	0
19	370	296	296	-148	0.99220398330862	100	1	370	0	0	0	0	0	0	0	0	0	0	0
190	13.4	10.72	10.72	-5.36	1.02485046830085	100	1	13.4	0	0	0	0	0	0	0	0	0	0	0
194	1017	-230.511052047369	813.6	-406.8	1.03869907778866	100	1	1017	0	0	0	0	0	0	0	0	0	0	0
196	163.141048359332	11.9841843585052	556	-278	1.04095649707487	100	1	695	0	0	0	0	0	0	0	0	0	0	0
196	163.568701837859	11.3076433755606	560	-280	1.04095649707487	100	1	700	0	0	0	0	0	0	0	0	0	0	0
197	40.1	32.08	32.08	-16.04	1.03806650778299	100	1	40.1	0	0	0	0	0	0	0	0	0	0	0
198	15	12	12	-6	1.09576554934122	100	1	15	0	0	0	0	0	0	0	0	0	0	0
200	27.5	22	22	-11	1.03616740094858	100	1	27.5	0	0	0	0	0	0	0	0	0	0	0
200	7.4	5.92	5.92	-2.96	1.03616740094858	100	1	7.4	0	0	0	0	0	0	0	0	0	0	0
201	58.1	-23.24	46.48	-23.24	1.07794312736669	100	1	58.1	0	0	0	0	0	0	0	0	0	0	0
202	1240.81137003709	50.4025194198873	1496.08	-748.04	1.08695379110197	100	1	1870.1	0	0	0	0	0	0	0	0	0	0	0
202	827.060697846608	95.6503461955586	1063.2	-531.6	1.08695379110197	100	1	1329	0	0	0	0	0	0	0	0	0	0	0
203	20.5	16.4	16.4	-8.2	1.07489317522712	100	1	20.5	0	0	0	0	0	0	0	0	0	0	0
204	310	114.161656004743	248	-124	1.06781671042551	100	1	310	0	0	0	0	0	0	0	0	0	0	0
205	365.947243210714	61.7688051127021	333.6	-166.8	1.07005288658394	100	1	417	0	0	0	0	0	0	0	0	0	0	0
209	26	20.8	20.8	-10.4	1.09093403338834	100	1	26	0	0	0	0	0	0	0	0	0	0	0
21	127	101.6	101.6	-50.8	1.06816001810306	100	1	127	0	0	0	0	0	0	0	0	0	0	0
21	194	155.2	155.2	-77.6	1.06816001810306	100	1	194	0	0	0	0	0	0	0	0	0	0	0
21	16.4	13.12	13.12	-6.56	1.06816001810306	100	1	16.4	0	0	0	0	0	0	0	0	0	0	0
210	0	-5.88	11.76	-5.88	1.05747316445931	100	1	14.7	0	0	0	0	0	0	0	0	0	0	0
211	721	175.242066540777	576.8	-288.4	1.1	100	1	721	0	0	0	0	0	0	0	0	0	0	0
211	11.6	2.32807676732862	9.28	-4.64	1.1	100	1	11.6	0	0	0	0	0	0	0	0	0	0	0
212	24	19.2	19.2	-9.6	1.09527154878753	100	1	24	0	0	0	0	0	0	0	0	0	0	0
213	104.6	83.68	83.68	-41.84	0.991956595813453	100	1	104.6	0	0	0	0	0	0	0	0	0	0	0
214	27	21.6	21.6	-10.8	0.992154403723	100	1	27	0	0	0	0	0	0	0	0	0	0	0
215	47.2	37.76	37.76	-18.88	1.01882742914551	100	1	47.2	0	0	0	0	0	0	0	0	0	0	0
215	73.4	58.72	58.72	-29.36	1.01882742914551	100	1	73.4	0	0	0	0	0	0	0	0	0	0	0
217	108	16.8364199495311	86.4	-43.2	1.08138222631777	100	1	108	0	0	0	0	0	0	0	0	0	0	0
217	508	6.04794882542881	406.4	-203.2	1.08138222631777	100	1	508	0	0	0	0	0	0	0	0	0	0	0
217	17	3.28134708843148	13.6	-6.8	1.08138222631777	100	1	17	0	0	0	0	0	0	0	0	0	0	0
219	254.5	203.6	203.6	-101.8	1.08795893229434	100	1	254.5	0	0	0	0	0	0	0	0	0	0	0
219	34	27.2	27.2	-13.6	1.08795893229434	100	1	34	0	0	0	0	0	0	0	0	0	0	0
221	7.8	6.24	6.24	-3.12	1.09792111556353	100	1	7.8	0	0	0	0	0	0	0	0	0	0	0
222	99	28.8485710494258	79.2	-39.6	1.09997644503192	100	1	99	0	0	0	0	0	0	0	0	0	0	0
223	87	69.6	69.6	-34.8	1.04260258305047	100	1	87	0	0	0	0	0	0	0	0	0	0	0
224	176.1	140.88	140.88	-70.44	1.05962769903956	100	1	176.1	0	0	0	0	0	0	0	0	0	0	0
225	11.6	9.28	9.28	-4.64	0.993516543018634	100	1	11.6	0	0	0	0	0	0	0	0	0	0	0
225	13.4	10.72	10.72	-5.36	0.993516543018634	100	1	13.4	0	0	0	0	0	0	0	0	0	0	0
225	15	12	12	-6	0.993516543018634	100	1	15	0	0	0	0	0	0	0	0	0	0	0
226	20	16	16	-8	0.96330021508174	100	1	20	0	0	0	0	0	0	0	0	0	0	0
226	0.1	0.08	0.08	-0.04	0.96330021508174	100	1	0.1	0	0	0	0	0	0	0	0	0	0	0
227	11	8.8	8.8	-4.4	1.07147142326443	100	1	11	0	0	0	0	0	0	0	0	0	0	0
229	12.3042776061742	4.90179200061467	19.6	-9.8	1.07596531809207	100	1	24.5	0	0	0	0	0	0	0	0	0	0	0
229	1290.56335182583	403.044326776501	1566.4	-783.2	1.07596531809207	100	1	1958	0	0	0	0	0	0	0	0	0	0	0
22	298.5	238.8	238.8	-119.4	1.08677275813572	100	1	298.5	0	0	0	0	0	0	0	0	0	0	0
233	4	3.2	3.2	-1.6	1.06094117079742	100	1	4	0	0	0	0	0	0	0	0	0	0	0
233	20.7	16.56	16.56	-8.28	1.06094117079742	100	1	20.7	0	0	0	0	0	0	0	0	0	0	0
235	19.7	15.76	15.76	-7.88	1.04962977022995	100	1	19.7	0	0	0	0	0	0	0	0	0	0	0
238	12.1	9.68	9.68	-4.84	1.08816599951027	100	1	12.1	0	0	0	0	0	0	0	0	0	0	0
239	800	-26.6413357800323	640	-320	1.1	100	1	800	0	0	0	0	0	0	0	0	0	0	0
240	126	100.8	100.8	-50.4	0.98201577836803	100	1	126	0	0	0	0	0	0	0	0	0	0	0
245	61.5	49.2	49.2	-24.6	1.01710441041741	100	1	61.5	0	0	0	0	0	0	0	0	0	0	0
246	510	408	408	-204	1.01862286403274	100	1	510	0	0	0	0	0	0	0	0	0	0	0
247	34.5	27.6	27.6	-13.8	1.07844336214913	100	1	34.5	0	0	0	0	0	0	0	0	0	0	0
247	633.2	506.56	506.56	-253.28	1.07844336214913	100	1	633.2	0	0	0	0	0	0	0	0	0	0	0
248	895	228.258848658654	716	-358	1.08436101519489	100	1	895	0	0	0	0	0	0	0	0	0	0	0
249	14.6	11.68	11.68	-5.84	1.09199598191156	100	1	14.6	0	0	0	0	0	0	0	0	0	0	0
250	396.6	317.28	317.28	-158.64	1.09202430917326	100	1	396.6	0	0	0	0	0	0	0	0	0	0	0
254	10.7	8.56	8.56	-4.28	0.935874132412869	100	1	10.7	0	0	0	0	0	0	0	0	0	0	0
255	84.8	67.84	67.84	-33.92	1.08027636638701	100	1	84.8	0	0	0	0	0	0	0	0	0	0	0
258	32	25.6	25.6	-12.8	0.963658969366618	100	1	32	0	0	0	0	0	0	0	0	0	0	0
258	28	22.4	22.4	-11.2	0.963658969366618	100	1	28	0	0	0	0	0	0	0	0	0	0	0
260	138.5	110.8	110.8	-55.4	1.03256663499217	100	1	138.5	0	0	0	0	0	0	0	0	0	0	0
266	59.9	47.92	47.92	-23.96	1.01784003213693	100	1	59.9	0	0	0	0	0	0	0	0	0	0	0
266	92.8	74.24	74.24	-37.12	1.01784003213693	100	1	92.8	0	0	0	0	0	0	0	0	0	0	0
266	214	171.2	171.2	-85.6	1.01784003213693	100	1	214	0	0	0	0	0	0	0	0	0	0	0
266	9	7.2	7.2	-3.6	1.01784003213693	100	1	9	0	0	0	0	0	0	0	0	0	0	0
26	1410	379.679533588776	1128	-564	1.1	100	1	1410	0	0	0	0	0	0	0	0	0	0	0
270	50	40	40	-20	1.08168888657494	100	1	50	0	0	0	0	0	0	0	0	0	0	0
275	42	33.6	33.6	-16.8	1.03837338783055	100	1	42	0	0	0	0	0	0	0	0	0	0	0
275	100	80	80	-40	1.03837338783055	100	1	100	0	0	0	0	0	0	0	0	0	0	0
275	12.5	10	10	-5	1.03837338783055	100	1	12.5	0	0	0	0	0	0	0	0	0	0	0
276	110	88	88	-44	1.03495331334666	100	1	110	0	0	0	0	0	0	0	0	0	0	0
276	16	12.8	12.8	-6.4	1.03495331334666	100	1	16	0	0	0	0	0	0	0	0	0	0	0
279	90.8	72.64	72.64	-36.32	1.05983660044995	100	1	90.8	0	0	0	0	0	0	0	0	0	0	0
28	260	117.918415955433	208	-104	1.08892367953709	100	1	260	0	0	0	0	0	0	0	0	0	0	0
28	101	31.8610166214803	80.8	-40.4	1.08892367953709	100	1	101	0	0	0	0	0	0	0	0	0	0	0
28	311.8	151.541375264533	249.44	-124.72	1.08892367953709	100	1	311.8	0	0	0	0	0	0	0	0	0	0	0
281	74	59.2	59.2	-29.6	1.04979111009004	100	1	74	0	0	0	0	0	0	0	0	0	0	0
282	17	13.6	13.6	-6.8	1.09439702876887	100	1	17	0	0	0	0	0	0	0	0	0	0	0
285	18.1	14.48	14.48	-7.24	1.05981847631402	100	1	18.1	0	0	0	0	0	0	0	0	0	0	0
287	64	51.2	51.2	-25.6	1.07834416804871	100	1	64	0	0	0	0	0	0	0	0	0	0	0
288	18.5	14.8	14.8	-7.4	1.07874992698566	100	1	18.5	0	0	0	0	0	0	0	0	0	0	0
289	16.6183584462943	6.53188307684017	26.72	-13.36	1.09142496198091	100	1	33.4	0	0	0	0	0	0	0	0	0	0	0
289	351.467758417174	77.5264767274966	635.2	-317.6	1.09142496198091	100	1	794	0	0	0	0	0	0	0	0	0	0	0
290	0	-6.28	12.56	-6.28	1.08355960900179	100	1	15.7	0	0	0	0	0	0	0	0	0	0	0
291	991.211301396855	427.014209900547	884	-442	1.1	100	1	1105	0	0	0	0	0	0	0	0	0	0	0
292	20.3	3.30040709914055	16.24	-8.12	1.1	100	1	20.3	0	0	0	0	0	0	0	0	0	0	0
292	216	-21.5708947892122	172.8	-86.4	1.1	100	1	216	0	0	0	0	0	0	0	0	0	0	0
292	59	5.55875359591065	47.2	-23.6	1.1	100	1	59	0	0	0	0	0	0	0	0	0	0	0
294	13.5	10.8	10.8	-5.4	1.05218992589789	100	1	13.5	0	0	0	0	0	0	0	0	0	0	0
294	11.2	8.96	8.96	-4.48	1.05218992589789	100	1	11.2	0	0	0	0	0	0	0	0	0	0	0
295	119	44.252423162058	95.2	-47.6	1.04404298872733	100	1	119	0	0	0	0	0	0	0	0	0	0	0
295	43.3	11.572829340316	34.64	-17.32	1.04404298872733	100	1	43.3	0	0	0	0	0	0	0	0	0	0	0
298	37.5	30	30	-15	1.04211477889416	100	1	37.5	0	0	0	0	0	0	0	0	0	0	0
299	607.760594310653	218.626736313878	552	-276	1.0522947524458	100	1	690	0	0	0	0	0	0	0	0	0	0	0
3	0	-7.52	15.04	-7.52	1.05767154414689	100	1	18.8	0	0	0	0	0	0	0	0	0	0	0
301	13	-5.2	10.4	-5.2	1.04585041709952	100	1	13	0	0	0	0	0	0	0	0	0	0	0
302	33.5	26.8	26.8	-13.4	1.03492894157096	100	1	33.5	0	0	0	0	0	0	0	0	0	0	0
302	128	102.4	102.4	-51.2	1.03492894157096	100	1	128	0	0	0	0	0	0	0	0	0	0	0
302	56	44.8	44.8	-22.4	1.03492894157096	100	1	56	0	0	0	0	0	0	0	0	0	0	0
302	79	63.2	63.2	-31.6	1.03492894157096	100	1	79	0	0	0	0	0	0	0	0	0	0	0
302	14.7	11.76	11.76	-5.88	1.03492894157096	100	1	14.7	0	0	0	0	0	0	0	0	0	0	0
304	34.2	27.36	27.36	-13.68	1.02451566156405	100	1	34.2	0	0	0	0	0	0	0	0	0	0	0
304	24.8	19.84	19.84	-9.92	1.02451566156405	100	1	24.8	0	0	0	0	0	0	0	0	0	0	0
305	916.945178501334	163.030661173825	1048	-524	1.06654220182713	100	1	1310	0	0	0	0	0	0	0	0	0	0	0
305	71.3525465980621	26.1163225483107	108.8	-54.4	1.06654220182713	100	1	136	0	0	0	0	0	0	0	0	0	0	0
308	27.4	21.92	21.92	-10.96	1.0817765077283	100	1	27.4	0	0	0	0	0	0	0	0	0	0	0
308	1275	1020	1020	-510	1.0817765077283	100	1	1275	0	0	0	0	0	0	0	0	0	0	0
30	3	2.4	2.4	-1.2	1.08082900823757	100	1	3	0	0	0	0	0	0	0	0	0	0	0
...
];

%% branch data
%	fbus	tbus	r	x	b	rateA	rateB	rateC	ratio	angle	status	angmin	angmax
mpc.branch = [
1	2	0.0071700826446281	0.0286803305785124	0.0758529736209919	495.366530965	0	0	0	0	1	0	0	15.3518014103832	-39.9576932843672	-15.2573278432427	31.6025529964228
3	4	0.000629207063711911	0.00629207063711911	0.903479699006109	3422.53239576	0	0	0	0	1	0	0	-473.494973925997	-328.104924953002	475.189344798548	242.083420094441
5	6	0.00280520661157025	0.011220826446281	0.118706170433497	990.733061929	0	0	0	0	1	0	0	264.624538483	77.8891367750822	-262.643593395748	-82.7384714816513
7	5	0.000579484072022161	0.00579484072022161	0.208020588596384	1711.26619788	0	0	0	0	1	0	0	-350.210521234262	43.4828562934683	350.875903808279	-59.5740309573471
8	9	0.000243793282548476	0.00243793282548476	0.350063268897849	3422.53239576	0	0	0	0	1	0	0	390.383401134558	127.539880662617	-390.008116374278	-163.223129403601
10	11	0.00455619834710744	0.0182247933884298	0.0482004476327864	495.366530965	0	0	0	0	1	0	0	180.615087715538	21.0616829182184	-179.357975010254	-21.7740186078771
11	12	0.00757173553719008	0.0302869421487603	0.0801020970654929	495.366530965	0	0	0	0	1	0	0	64.7816018417108	-35.5141679763959	-64.4511679824184	27.3554361920101
10	12	0.011304132231405	0.0452165289256198	0.119587470110875	495.366530965	0	0	0	0	1	0	0	117.174586573206	-17.1936434664283	-115.875189110863	8.09267177839936
13	14	0.00649289256198347	0.0259715702479339	0.0686889165213537	495.366530965	0	0	0	0	1	0	0	-183.260848217135	-78.3241373542856	186.018816636195	82.7855084526502
13	15	0.00153472991689751	0.0153472991689751	0.137732612535591	855.633098939	0	0	0	0	1	0	0	-313.421989740886	-182.677104801848	315.570844598399	190.982499235197
16	5	0.000627648891966759	0.00627648891966759	0.2253105792592	1711.26619788	0	0	0	0	1	0	0	652.087786210998	-72.9962461424813	-649.621334533722	73.0580334815944
17	18	0.00462352262234534	0.0462352262234534	0.933598900030435	1283.44964841	0	0	0	0	1	0	0	-92.3288876696938	-55.4062398773683	92.6604370856733	-52.7294405966826
17	12	0.000560203139427516	0.00560203139427516	0.113118303398249	1283.44964841	0	0	0	0	1	0	0	-17.7417348647703	0.370928610139222	17.7434553826472	-13.7975983313569
13	15	0.001536391966759	0.01536391966759	0.137881771333544	855.633098939	0	0	0	0	1	0	0	-313.082933701862	-182.493256120743	315.229463954719	190.761127689659
14	15	0.000448925619834711	0.00179570247933884	0.0189969041568145	990.733061929	0	0	0	0	1	0	0	-151.887441144596	4.05071323784932	151.992219496902	-5.51247343017048
13	19	0.00256165289256198	0.0102466115702479	0.108399860317493	990.733061929	0	0	0	0	1	0	0	-127.873937186802	-265.010100450663	130.20239080628	263.982086409168
20	21	0.00108334487534626	0.0108334487534626	0.0972235689912918	855.633098939	0	0	0	0	1	0	0	33.084682397061	-76.2867128931732	-33.0259220423751	65.8528509140964
20	22	0.000993386426592798	0.00993386426592798	0.356601396208159	1711.26619788	0	0	0	0	1	0	0	-507.448245855259	-231.693510533095	510.114415133724	217.214979173691
20	23	0.000547603305785124	0.0021904132231405	0.00579314649038351	495.366530965	0	0	0	0	1	0	0	-285.039298644134	-0.860475162847679	285.434330721971	1.78721380111482
23	24	0.0051999173553719	0.0207996694214876	0.220041644448198	990.733061929	0	0	0	0	1	0	0	-218.919503423864	-81.9810496417994	221.348690271309	66.2525755400323
25	26	0.000141845567867036	0.00141845567867036	0.0509190846514944	1711.26619788	0	0	0	0	1	0	0	-1114.95909451831	-307.702686412139	1116.54092500571	317.390415949883
25	22	0.000355782548476454	0.00355782548476454	0.0319293051869953	855.633098939	0	0	0	0	1	0	0	582.507773890622	182.838070537695	-581.398676199099	-175.54515254903
23	27	0.00693454545454545	0.0277381818181818	0.0733612036998339	495.366530965	0	0	0	0	1	0	0	-82.8614814164287	-56.3432798753267	83.4503353063303	50.2619353479119
28	23	0.0032104132231405	0.012841652892562	0.0339632611780015	495.366530965	0	0	0	0	1	0	0	305.005176159952	147.572229429414	-301.880628078028	-139.005645281099
8	21	0.000989473684210526	0.00989473684210526	0.0887992043818568	855.633098939	0	0	0	0	1	0	0	-59.3703937653861	-49.0033641048237	59.4181530074636	39.3933434440759
9	29	0.000442711218836565	0.00442711218836565	0.158922484269909	1711.26619788	0	0	0	0	1	0	0	129.599029390016	48.9087470129446	-129.519567064482	-65.8964138777833
30	25	0.00199587950138504	0.0199587950138504	0.179117964017868	855.633098939	0	0	0	0	1	0	0	-223.288490566704	-58.2291004888271	224.179303643531	45.9461525017872
31	32	0.00299776084949215	0.0299776084949215	0.605319030583763	1283.44964841	0	0	0	0	1	0	0	-478.403700743912	-64.546688742817	484.837718543456	62.0063007000112
32	33	0.00167622345337027	0.0167622345337027	0.338469279831895	1283.44964841	0	0	0	0	1	0	0	573.374406610417	112.584235183521	-568.278525828746	-99.2359581640004
34	35	0.000966115702479339	0.00386446280991736	0.0102206282029253	495.366530965	0	0	0	0	1	0	0	0.492668279967505	-0.651715943167834	-0.492666333076903	-0.584968735187936
35	36	0.00043801652892562	0.00175206611570248	0.00463381774811841	495.366530965	0	0	0	0	1	0	0	-1.0864577148723	-0.205940692387488	1.08646200792267	-0.354732468188659
2	6	0.0123380165289256	0.0493520661157025	0.130525028606905	495.366530965	0	0	0	0	1	0	0	67.034269539728	80.6411749561839	-65.7291722224447	-89.9096829755271
37	10	0.00240463988919668	0.0240463988919668	0.485553838251696	1283.44964841	0	0	0	0	1	0	0	228.240733484507	-36.7635052186933	-227.202665679762	-11.3928508124648
10	38	0.000684879963065559	0.00684879963065559	0.138293511765396	1283.44964841	0	0	0	0	1	0	0	-85.9354141219191	43.7833617965387	85.9929057009061	-59.8060562943334
37	38	0.00143783471837488	0.0143783471837488	1.16133175601891	2566.89929682	0	0	0	0	1	0	0	339.601293944381	-59.6118557075697	-338.227271238766	-66.3111264746036
39	40	0.0045216297322253	0.045216297322253	0.913024308337676	1283.44964841	0	0	0	0	1	0	0	228.325416566567	-56.9481365583913	-226.377176339171	-33.579568376255
39	41	0.00174669898430286	0.0174669898430286	0.352699961399179	1283.44964841	0	0	0	0	1	0	0	361.442704488856	6.19739170346347	-359.545889782767	-29.5726444032024
42	41	0.00311454293628809	0.0311454293628809	0.628900104297779	1283.44964841	0	0	0	0	1	0	0	-264.950508121302	-38.6495801212318	266.823305779508	-16.78858517221
18	42	0.00343975069252078	0.0343975069252078	0.69456726509696	1283.44964841	0	0	0	0	1	0	0	58.2546363019925	-1.25327240570954	-58.1104784800476	-79.4822335892819
10	43	0.00910611570247934	0.0364244628099174	0.0963344480676753	495.366530965	0	0	0	0	1	0	0	-35.2886584460631	-6.19944123138698	35.3829226764477	-5.04689221361619
10	43	0.00909586776859504	0.0363834710743802	0.096226034218474	495.366530965	0	0	0	0	1	0	0	-35.3284167019897	-6.19337490997429	35.4227871359415	-5.03945287049832
44	45	0.00640578512396694	0.0256231404958678	0.067767398803143	495.366530965	0	0	0	0	1	0	0	-164.175285400511	-21.369402960385	165.656832103339	19.2026428817974
44	46	0.00151537190082645	0.00606148760330578	0.0160312607980187	495.366530965	0	0	0	0	1	0	0	-41.826943507616	-53.1155924122417	41.8844402178364	51.4502802140277
46	12	0.000294494459833795	0.00294494459833795	0.105716298049789	1711.26619788	0	0	0	0	1	0	0	-186.030129646389	-23.3249148806049	186.116780713898	11.6416470981288
46	12	0.000294823407202216	0.00294823407202216	0.105834382098169	1711.26619788	0	0	0	0	1	0	0	-185.822567695408	-23.312887864418	185.909122082531	11.6146353009783
47	48	0.000534418282548477	0.00534418282548476	0.0119901921230191	427.81654947	0	0	0	0	1	0	0	289.081063947404	147.623747963071	-288.607368569269	-144.303684284639
49	50	0.000191516620498615	0.00191516620498615	0.0171874439892235	855.633098939	0	0	0	0	1	0	0	106.326649424359	51.4902161701872	-106.302372764832	-53.15118638239
31	33	0.00134759926131117	0.0134759926131117	0.272112259592177	1283.44964841	0	0	0	0	1	0	0	-357.720471294245	-17.5217554823827	359.330449277816	4.30192038849413
31	51	0.000351861149584488	0.00351861149584488	0.505238138369168	3422.53239576	0	0	0	0	1	0	0	-902.335090457609	40.8334019500904	905.02477188061	-68.1199818583142
52	53	0.00209432132963989	0.0209432132963989	0.751810061286706	1711.26619788	0	0	0	0	1	0	0	417.914082984773	80.036671227186	-414.618421772837	-135.676737275983
52	54	0.000761265004616805	0.00761265004616805	0.153717463716311	1283.44964841	0	0	0	0	1	0	0	-124.159699475942	4.65617879015822	124.257911490275	-22.2726499012111
52	55	0.00315859504132231	0.0126343801652893	0.133660287181387	990.733061929	0	0	0	0	1	0	0	104.489604643251	37.3778763375845	-104.150640872368	-52.0752428133811
52	56	0.0110393388429752	0.0441573553719008	0.116786196136352	495.366530965	0	0	0	0	1	0	0	54.4566417874688	24.432437562784	-54.0955687355578	-36.8905898774833
57	52	0.00117181818181818	0.00468727272727273	0.04958709573628	990.733061929	0	0	0	0	1	0	0	-379.010357387906	-173.942248526169	380.720407032558	174.845022664077
57	58	0.00360909090909091	0.0144363636363636	0.0381809096340247	495.366530965	0	0	0	0	1	0	0	67.0859347223389	17.9578258104455	-66.9363811032577	-21.8628644813134
58	52	0.00494942148760331	0.0197976859504132	0.052360391943267	495.366530965	0	0	0	0	1	0	0	-138.445162935516	-57.007857851133	139.375728866467	54.4883512340483
59	60	0.00194075484764543	0.0194075484764543	0.174170863885732	855.633098939	0	0	0	0	1	0	0	257.467204085851	17.6997333778183	-256.391180736191	-27.8500646987799
61	62	0.0127778512396694	0.0511114049586777	0.0337945202675511	247.683265482	0	0	0	0	1	0	0	212.791161337238	10.1914342039085	-207.962482791102	5.15586781680993
30	61	0.00314369806094183	0.0314369806094183	0.282127651379786	855.633098939	0	0	0	0	1	0	0	-376.158161194283	-13.6814506027383	379.966116483044	18.3237263529315
63	52	0.00686429752066116	0.0274571900826446	0.0726180442496639	495.366530965	0	0	0	0	1	0	0	-7.20717237745584	-2.58494251897212	7.21030464275925	-6.18931177402401
13	64	0.000296554709141274	0.00296554709141274	0.106455877089643	1711.26619788	0	0	0	0	1	0	0	984.917614194415	519.105974988597	-980.921270338899	-488.784859522817
65	66	0.00377818559556787	0.0377818559556787	0.762905300622002	1283.44964841	0	0	0	0	1	0	0	812.89612144737	189.420839906437	-788.442415640717	-23.6346689979874
59	67	0.000518801939058172	0.00518801939058172	0.0465592972863018	855.633098939	0	0	0	0	1	0	0	-14.8025637974301	-1.33178895236348	14.8035127387604	-4.29239660597519
61	67	0.00129314404432133	0.0129314404432133	0.116051759758008	855.633098939	0	0	0	0	1	0	0	-495.893159817611	25.7695488652951	498.549877761122	-13.1992199712261
68	69	0.00111495844875346	0.0111495844875346	0.400242774509489	1711.26619788	0	0	0	0	1	0	0	-386.762140745087	-33.4296939311776	388.394361208457	8.5418019948152
70	69	0.000962534626038781	0.00962534626038781	0.345526355460086	1711.26619788	0	0	0	0	1	0	0	-917.519472550371	-264.210542994006	926.554072237274	320.029838431075
71	72	0.000887863573407202	0.00887863573407202	0.318721276477797	1711.26619788	0	0	0	0	1	0	0	264.536483487995	-43.1221015331661	-264.018823281553	9.73342914378348
73	74	0.00125295475530933	0.0125295475530933	0.25300128860434	1283.44964841	0	0	0	0	1	0	0	-389.711032075236	10.3929373732585	391.299430320928	-25.0175277611487
37	75	0.00274591412742382	0.0274591412742382	0.554465202906373	1283.44964841	0	0	0	0	1	0	0	467.739228126074	-54.6366473450439	-462.756008999197	37.495798476387
72	75	0.000668871191135734	0.00668871191135734	0.240108375006205	1711.26619788	0	0	0	0	1	0	0	-377.513667241193	44.0550256189	378.320449560043	-65.0134054626995
37	72	0.00362220683287165	0.0362220683287165	0.73140948819156	1283.44964841	0	0	0	0	1	0	0	425.046813284885	-62.0210108326521	-419.620059345324	27.8606955932847
76	77	0.000936755540166205	0.00936755540166205	0.336272295037033	1711.26619788	0	0	0	0	1	0	0	527.79719002149	146.313282836759	-525.30841462968	-159.509948124323
76	77	0.000936755540166205	0.00936755540166205	0.336272295037033	1711.26619788	0	0	0	0	1	0	0	527.79719002149	146.313282836759	-525.30841462968	-159.509948124323
77	51	0.000726367728531856	0.00726367728531856	0.260748223673068	1711.26619788	0	0	0	0	1	0	0	1088.52675988918	189.381398420376	-1080.52446296302	-137.870684825771
77	51	0.000726367728531856	0.00726367728531856	0.260748223673068	1711.26619788	0	0	0	0	1	0	0	1088.52675988918	189.381398420376	-1080.52446296302	-137.870684825771
73	72	0.00254750692520776	0.0254750692520776	0.514402082018457	1283.44964841	0	0	0	0	1	0	0	282.650124339073	-63.9233450740782	-280.935566086709	19.0014916053629
18	40	0.00130277008310249	0.0130277008310249	0.263060185041353	1283.44964841	0	0	0	0	1	0	0	-187.719384377159	1.06808627170842	188.105417505411	-28.7562889231302
10	45	0.00771757575757576	0.030870303030303	0.183701147334888	743.049796447	0	0	0	0	1	0	0	60.1244222031937	-36.6228762625441	-59.8505923395576	15.5534333804101
10	74	0.00301673591874423	0.0301673591874423	0.609150547206202	1283.44964841	0	0	0	0	1	0	0	-74.5787647970309	-37.4526829204199	74.7182426128232	-34.606279140176
45	74	0.0205084297520661	0.0820337190082644	0.0542401481995792	247.683265482	0	0	0	0	1	0	0	-49.0328402594352	10.8008522658131	49.4739465639877	-15.5955390542706
78	32	0.00134587950138504	0.0134587950138504	0.483137776472339	1711.26619788	0	0	0	0	1	0	0	-625.428711732844	-70.1136070436776	630.222326647294	63.886648678761
79	80	0.000762326869806094	0.00762326869806094	0.0684141686614977	855.633098939	0	0	0	0	1	0	0	480.972430120822	-77.256952995013	-479.470928099857	84.0338179280481
79	80	0.000761738227146814	0.00761738227146814	0.0683613415872224	855.633098939	0	0	0	0	1	0	0	481.344107529436	-77.3103037308875	-479.841445204166	84.1051329278633
81	79	0.00215304709141274	0.0215304709141274	0.193222792849379	855.633098939	0	0	0	0	1	0	0	161.698611407993	-6.16671937690559	-161.232824628603	-12.4749091931026
81	79	0.00215356648199446	0.0215356648199446	0.19326940497374	855.633098939	0	0	0	0	1	0	0	161.659613431128	-6.17087149329449	-161.19393898877	-12.477501103921
34	82	0.000387438016528926	0.0015497520661157	0.00409874294399606	495.366530965	0	0	0	0	1	0	0	5.14000624796327	2.07379172838808	-5.13990439255888	-2.56930929405771
83	84	0.00225652892561983	0.00902611570247934	0.0238720301499293	495.366530965	0	0	0	0	1	0	0	9.59170747315621e-05	-1.44387411921825	-9.59170721272651e-05	-1.4446414410665
83	24	0.0104489256198347	0.0417957024793388	0.0276350398834956	247.683265482	0	0	0	0	1	0	0	164.832104302866	-5.95758445391429	-162.484292068599	12.0418773082287
85	86	0.000802354570637119	0.00802354570637119	0.288025638848878	1711.26619788	0	0	0	0	1	0	0	-546.440769630144	-115.976076306301	548.58497630068	103.791057705851
87	86	0.0019049688365651	0.019049688365651	0.683837154069155	1711.26619788	0	0	0	0	1	0	0	-482.991495198861	-130.252510908915	487.105506512307	92.7480887234851
88	89	0.000950743801652893	0.00380297520661157	0.0100580074291234	495.366530965	0	0	0	0	1	0	0	-475.008451172064	46.1228511138537	476.979287292891	-39.347776385473
90	86	0.00120978185595568	0.0120978185595568	0.43428205519254	1711.26619788	0	0	0	0	1	0	0	-325.845480242128	29.4289832118057	326.960658919015	-69.6430975795956
91	86	1.8542243767313e-05	0.00018542243767313	0.00665621135869041	1711.26619788	0	0	0	0	1	0	0	-12.0702879983848	0.0976413848710705	12.0703109157622	-0.883328856970905
86	92	1.85249307479224e-05	0.000185249307479224	0.00664999640877567	1711.26619788	0	0	0	0	1	0	0	8.48586676426835	-4.5605818891375	-8.48585274072655	3.77553432108242
91	86	1.85249307479224e-05	0.000185249307479224	0.00664999640877567	1711.26619788	0	0	0	0	1	0	0	-12.0815686413782	0.0984667963282091	12.0815915801839	-0.883420238429114
86	93	0.000815218144044321	0.00815218144044321	0.292643346635533	1711.26619788	0	0	0	0	1	0	0	50.5028740111237	-9.09876238742292	-50.4848023962559	-25.2424011981255
94	86	0.00128838296398892	0.0128838296398892	0.462497927805476	1711.26619788	0	0	0	0	1	0	0	-460.91419999642	-55.9978967698335	463.286825604052	25.6358470963284
86	95	0.00104210526315789	0.0104210526315789	0.374090265268248	1711.26619788	0	0	0	0	1	0	0	430.940067226426	27.436721252262	-429.279360173527	-54.6711768775659
86	96	0.000218347107438017	0.000873388429752066	0.00230991443217525	495.366530965	0	0	0	0	1	0	0	-242.436199793728	19.8757141794949	242.545631121284	-19.7108093119726
97	66	0.00381277700831025	0.0381277700831025	0.342173389981082	855.633098939	0	0	0	0	1	0	0	-7.10031036095783	-3.55015518047885	7.10898201830029	-29.3967895132685
42	98	0.000618611495844875	0.00618611495844875	0.222066375403704	1711.26619788	0	0	0	0	1	0	0	-225.538654631243	8.10680631913258	225.810534817293	-31.3181375450688
99	100	0.00163715373961219	0.0163715373961219	0.587698093837986	1711.26619788	0	0	0	0	1	0	0	-117.78069966473	29.8065365267435	118.026605294964	-97.7980983111809
42	98	0.000618351800554017	0.00618351800554017	0.221973151154983	1711.26619788	0	0	0	0	1	0	0	-225.633376319548	8.1210972137378	225.905370689794	-31.3204010362502
42	101	0.000816533933518005	0.00816533933518005	0.293115682829053	1711.26619788	0	0	0	0	1	0	0	338.711444605037	25.2173791367908	-337.896538252809	-51.1169928913072
102	42	0.00124030470914127	0.0124030470914127	0.445239011892233	1711.26619788	0	0	0	0	1	0	0	-332.282266243512	-75.3400491393996	333.50480847098	36.0767336705573
103	87	0.000707306094182825	0.00707306094182826	0.253905563816936	1711.26619788	0	0	0	0	1	0	0	-374.589218460391	-165.24194344209	375.646603089257	147.743152313732
104	103	0.000288521468144044	0.00288521468144044	0.103572140329202	1711.26619788	0	0	0	0	1	0	0	-165.310994473409	-71.0901957765731	165.394892961559	60.6447806926838
105	87	0.000640668282548477	0.00640668282548477	0.229984221595087	1711.26619788	0	0	0	0	1	0	0	-549.206761943666	-212.483861241401	551.223265390557	207.295829527494
106	107	0.000571421975992613	0.00571421975992613	0.115383652642173	1283.44964841	0	0	0	0	1	0	0	383.56487831658	121.246247421292	-382.739774645232	-125.949370413006
108	107	0.000254276315789474	0.00254276315789474	0.0912789693978395	1711.26619788	0	0	0	0	1	0	0	-46.4610903153014	4.16194614515514	46.4662140547742	-14.275209506599
109	106	0.000303047091412742	0.00303047091412742	0.108786483307672	1711.26619788	0	0	0	0	1	0	0	483.895209987076	214.268787723528	-483.148748478895	-219.205756790376
110	111	0.00198218490304709	0.0198218490304709	0.711555830688911	1711.26619788	0	0	0	0	1	0	0	748.132164072934	115.111448207424	-738.475401431435	-101.336060276688
87	112	0.000613590720221607	0.00613590720221607	0.220264039928428	1711.26619788	0	0	0	0	1	0	0	-352.417668394847	-280.710217042632	353.493305098785	266.393250209471
113	87	0.000398164819944598	0.00398164819944598	0.142931418139274	1711.26619788	0	0	0	0	1	0	0	-488.433471050143	-24.771752776941	489.287322672313	17.3508106386213
87	85	0.00110462257617729	0.0110462257617729	0.396532449410387	1711.26619788	0	0	0	0	1	0	0	-439.45142911376	-126.108172470635	441.463727032576	101.152435693261
110	114	0.00116653393351801	0.0116653393351801	0.41875711030551	1711.26619788	0	0	0	0	1	0	0	785.64480087938	142.425253180109	-779.371558799322	-128.895379088004
115	116	0.00176223140495868	0.00704892561983471	0.0745712421457576	990.733061929	0	0	0	0	1	0	0	2.25297786316528	92.0595268488642	-2.10831739327998	-99.8541368826795
117	118	0.000598753462603878	0.00598753462603878	0.214937827851493	1711.26619788	0	0	0	0	1	0	0	763.488129503656	88.9521079830428	-760.285689151401	-80.554588138071
117	119	0.000774774930747923	0.00774774930747922	0.278125223634692	1711.26619788	0	0	0	0	1	0	0	-619.549878736259	-285.231646408228	622.740409891918	285.546435346561
117	120	0.00117733725761773	0.0117733725761773	0.42263523905231	1711.26619788	0	0	0	0	1	0	0	269.095040643072	110.679955871702	-268.135253955764	-147.170388519072
121	122	0.000211703601108033	0.00211703601108033	0.0759964075574849	1711.26619788	0	0	0	0	1	0	0	61.8217537740421	22.1746660831511	-61.8134929019851	-30.9067464509997
123	124	0.000183864265927978	0.00183864265927978	0.0660027680945772	1711.26619788	0	0	0	0	1	0	0	-683.513157401989	566.229850666027	684.796379337383	-560.828146884621
125	126	0.000494113573407202	0.00494113573407202	0.177374670566783	1711.26619788	0	0	0	0	1	0	0	471.734615587423	84.5727843306201	-470.687169529579	-93.3424623450825
127	119	0.000290270083102493	0.00290270083102493	0.104199850270591	1711.26619788	0	0	0	0	1	0	0	1573.44460230802	672.83287937968	-1566.3949100092	-614.694453575032
118	128	0.000739716066481994	0.00739716066481994	0.265539950057336	1711.26619788	0	0	0	0	1	0	0	599.068584980003	32.0460370523179	-596.61748401393	-36.2835409576896
121	119	0.000255245844875346	0.00255245844875346	0.0916270065930651	1711.26619788	0	0	0	0	1	0	0	-107.826218620814	-37.7968980066019	107.854108966019	27.4316479317173
129	124	0.00568165289256198	0.0227266115702479	0.0601067363297442	495.366530965	0	0	0	0	1	0	0	78.8349614686617	-71.0800964774489	-78.2736626628126	66.6805766088786
125	130	0.00029314404432133	0.0029314404432133	0.105231531956439	1711.26619788	0	0	0	0	1	0	0	479.237850054122	69.8487095903143	-478.605779988123	-74.9786983387027
125	123	0.000381561634349031	0.0038156163434903	0.136971281171035	1711.26619788	0	0	0	0	1	0	0	-742.176498621336	-485.888874315634	744.901730676819	497.892441980112
131	132	0.00035744459833795	0.0035744459833795	0.128313855939797	1711.26619788	0	0	0	0	1	0	0	-1017.40770506966	236.102916042983	1020.91250081007	-215.31853396323
133	123	0.000386443905817175	0.00386443905817175	0.138723897046992	1711.26619788	0	0	0	0	1	0	0	-761.307788803406	-76.1273042223688	763.318432602161	80.5729643967996
117	120	0.00117733725761773	0.0117733725761773	0.42263523905231	1711.26619788	0	0	0	0	1	0	0	269.095040643072	110.679955871702	-268.135253955764	-147.170388519072
117	134	0.00202305785123967	0.00809223140495868	0.0856084714386344	990.733061929	0	0	0	0	1	0	0	-112.460816007129	14.9943708157331	112.698666406414	-23.542118850397
135	136	0.000524290166204986	0.00524290166204986	0.188207328268181	1711.26619788	0	0	0	0	1	0	0	-278.106043303728	-273.805708051098	278.756782071924	257.829922736468
125	123	0.000381561634349031	0.0038156163434903	0.136971281171035	1711.26619788	0	0	0	0	1	0	0	-742.176498621336	-485.888874315634	744.901730676819	497.892441980112
123	131	0.000313833102493075	0.00313833102493075	0.112658397104558	1711.26619788	0	0	0	0	1	0	0	-431.759704285559	341.39877032155	432.609692992119	-345.578217047621
117	119	0.000774774930747923	0.00774774930747922	0.278125223634692	1711.26619788	0	0	0	0	1	0	0	-619.549878736259	-285.231646408228	622.740409891918	285.546435346561
117	128	0.00108000346260388	0.0108000346260388	0.387694790631622	1711.26619788	0	0	0	0	1	0	0	835.53920838882	83.5247194041982	-828.632364000352	-56.8036462012274
137	105	0.00691669421487603	0.0276667768595041	0.0731723537689671	495.366530965	0	0	0	0	1	0	0	-20.0046489609471	-8.29266886611884	20.0314800006467	0.476905497331028
138	87	0.00148760330578512	0.0059504132231405	0.0354093620375086	743.049796447	0	0	0	0	1	0	0	-41.8339903431798	-8.53511310051933	41.8578630591344	4.67059127574502
139	105	0.00531438016528926	0.021257520661157	0.0562213238632087	495.366530965	0	0	0	0	1	0	0	184.886493089481	22.4023565307177	-183.225277135664	-21.9412850305216
140	87	0.00463190082644628	0.0185276033057851	0.0490013112284989	495.366530965	0	0	0	0	1	0	0	58.5688318619029	43.4765376569333	-58.3428037838121	-48.1123406357475
106	141	0.00304214876033058	0.0121685950413223	0.0321831757185356	495.366530965	0	0	0	0	1	0	0	-100.345152019055	-24.3387925523514	100.629387806974	21.8138550830966
142	107	0.00293157024793388	0.0117262809917355	0.0310133553134446	495.366530965	0	0	0	0	1	0	0	153.900211778743	6.09393528456748	-153.28086081387	-7.08607123966819
129	123	0.0050704132231405	0.020281652892562	0.0536403748080303	495.366530965	0	0	0	0	1	0	0	141.676227685298	-134.769339578191	-139.940856025002	135.732124518692
140	143	0.00116727272727273	0.00466909090909091	0.0123486871461178	495.366530965	0	0	0	0	1	0	0	-260.434987851291	-97.0329670364385	261.223270417339	98.7667665464877
142	144	0.00166953168044077	0.00667812672176309	0.0397397958689106	743.049796447	0	0	0	0	1	0	0	86.2956650373395	21.2409097034001	-86.1768671851525	-25.2205861528146
140	106	0.00511256198347108	0.0204502479338843	0.0540862704781323	495.366530965	0	0	0	0	1	0	0	72.7458638820483	3.20276721523233	-72.5071295429161	-8.39668252628931
145	146	0.00713190082644628	0.0285276033057851	0.0754490446021936	495.366530965	0	0	0	0	1	0	0	230.427353090093	97.2103345631927	-226.17382772205	-87.8869133615477
147	107	0.012401652892562	0.0496066115702479	0.0327995609095589	247.683265482	0	0	0	0	1	0	0	112.389161218403	-2.79863425207268	-111.011923470986	4.6160881750527
144	107	0.0021198347107438	0.00847933884297521	0.0224259292904221	495.366530965	0	0	0	0	1	0	0	144.44357550889	-9.57537833229045	-144.04666838797	8.66087208295236
139	107	0.00731140495867769	0.0292456198347107	0.0193370088934217	247.683265482	0	0	0	0	1	0	0	100.082692812459	-22.9989123481751	-99.3939977267908	23.5996920757874
140	141	0.00209074380165289	0.00836297520661157	0.0221181738475282	495.366530965	0	0	0	0	1	0	0	31.682372041512	-20.660659836911	-31.6571011040348	18.2342415671108
142	107	0.0035300826446281	0.0141203305785124	0.0373450738288924	495.366530965	0	0	0	0	1	0	0	127.807002673961	4.40937738268523	-127.29266036404	-6.52989277427384
147	107	0.0123064462809917	0.0492257851239669	0.0325477610017366	247.683265482	0	0	0	0	1	0	0	113.258639780492	-2.79153248029379	-111.870747280577	4.67994477499452
125	123	0.00384727272727273	0.0153890909090909	0.0407006573227185	495.366530965	0	0	0	0	1	0	0	-194.268897555716	-90.6751009013039	195.874683556974	92.5671179380927
...